Circuit: * D:\Main_Branch_Book\ZT_Book\Electrionic and Electrical Circuit\Notes\Analog_Learning_Notes\Current_Mirror\Chap20_LTspice\Fig20_10.asc

Warning: Multiple definitions of model "aons66402" Type: Vdmos1

Date: Sun Apr 03 23:29:07 2022
Total elapsed time: 0.088 seconds.

tnom = 27
temp = 27
method = trap
totiter = 2004
traniter = 0
tranpoints = 0
accept = 0
rejected = 0
matrix size = 11
fillins = 0
solver = Normal
Matrix Compiler1: 834 bytes object code size  0.2/0.1/[0.1]
Matrix Compiler2: 1.11 KB object code size  0.1/0.1/[0.1]

