Circuit: * D:\Main_Branch_Book\ZT_Book\Electrionic and Electrical Circuit\Notes\Analog_Learning_Notes\Current_Mirror\Chap20_LTspice\Fig20_4.asc

Warning: Multiple definitions of model "aons66402" Type: Vdmos1

Date: Sun Apr 03 21:35:38 2022
Total elapsed time: 0.046 seconds.

tnom = 27
temp = 27
method = trap
totiter = 2008
traniter = 0
tranpoints = 0
accept = 0
rejected = 0
matrix size = 5
fillins = 0
solver = Normal
Matrix Compiler1:       7 opcodes  0.0/[0.0]/0.0
Matrix Compiler2: 301 bytes object code size  0.0/0.1/[0.0]

