Circuit: * D:\Main_Branch_Book\ZT_Book\Electrionic and Electrical Circuit\Notes\Analog_Learning_Notes\Current_Mirror\Chap20_LTspice\Fig20_13.asc

Warning: Multiple definitions of model "aons66402" Type: Vdmos1

Date: Sun Apr 03 23:57:39 2022
Total elapsed time: 0.066 seconds.

tnom = 27
temp = 27
method = trap
totiter = 2007
traniter = 0
tranpoints = 0
accept = 0
rejected = 0
matrix size = 4
fillins = 0
solver = Normal
Matrix Compiler1: 136 bytes object code size  0.0/0.0/[0.0]
Matrix Compiler2: 230 bytes object code size  0.0/0.0/[0.0]

